Circuit: * D:\alexa\Documents\Uni_3rd_year_sem1\Embedded_systems\M3\RF_amp_subcircuit.asc

Direct Newton iteration for .op point succeeded.

Date: Wed Jun 01 18:30:02 2022
Total elapsed time: 0.094 seconds.

tnom = 27
temp = 27
method = modified trap
totiter = 2096
traniter = 2086
tranpoints = 1044
accept = 1043
rejected = 1
matrix size = 44
fillins = 48
solver = Normal
Matrix Compiler1: 5.20 KB object code size  0.9/0.6/[0.3]
Matrix Compiler2: off  [0.4]/1.0/1.2

